LTspice 24.1.10 for Windows
Circuit: D:\home\mikko\Git\Caravan-Monitor\LTSpice\Caravan-monitor.net
Start Time: Sun May 10 13:17:18 2026
Options: method=gear  plotwinsize=0  reltol=0.05  gmin=1e-9
D:\home\mikko\Git\Caravan-Monitor\LTSpice\TPS54202_PSPICE_TRANS\TPS54302_PSPICE_TRANS\TPS54302_TRANS.LIB(664): Note: The caret character means exponentiation in this context. If you wish to silence this warning, use the "**" operator instead or add ".OPTIONS NO_CARET_WARNING" to your netlist.
EXOR P 0 VALUE={IF(V(YTD) > 0.5 ^ V(IN) > .5, 1, 0)}
                                ^
D:\home\mikko\Git\Caravan-Monitor\LTSpice\TPS54202_PSPICE_TRANS\TPS54302_PSPICE_TRANS\TPS54302_TRANS.LIB(664): Note: The caret character means exponentiation in this context. If you wish to silence this warning, use the "**" operator instead or add ".OPTIONS NO_CARET_WARNING" to your netlist.
EXOR P 0 VALUE={IF(V(YTD) > 0.5 ^ V(IN) > .5, 1, 0)}
                                ^
D:\home\mikko\Git\Caravan-Monitor\LTSpice\TPS54202_PSPICE_TRANS\TPS54302_PSPICE_TRANS\TPS54302_TRANS.LIB(664): Note: The caret character means exponentiation in this context. If you wish to silence this warning, use the "**" operator instead or add ".OPTIONS NO_CARET_WARNING" to your netlist.
EXOR P 0 VALUE={IF(V(YTD) > 0.5 ^ V(IN) > .5, 1, 0)}
                                ^
solver = Normal
Maximum thread count: 12
tnom = 27
temp = 27
method = Gear
gmin = 1e-09
reltol = 0.05
d_d: Emission coefficient, N=1e-05, too small, this might lead to numerical problems.
d_dtmin: Emission coefficient, N=0.01, too small, this might lead to numerical problems.
Per .tran options, skipping operating point for transient analysis.
Total elapsed time: 75.546 seconds.

Files loaded:
D:\home\mikko\Git\Caravan-Monitor\LTSpice\Caravan-monitor.net
D:\home\mikko\Git\Caravan-Monitor\LTSpice\TPS54202_PSPICE_TRANS\TPS54302_PSPICE_TRANS\TPS54302_TRANS.LIB

