LTspice 24.1.10 for Windows
Circuit: D:\home\mikko\Git\Caravan-Monitor\LTSpice\Caravan-monitor.net
Start Time: Sun May 10 11:56:18 2026
D:\home\mikko\Git\Caravan-Monitor\LTSpice\TPS54202_PSPICE_TRANS\TPS54302_PSPICE_TRANS\TPS54302_TRANS.LIB(664): Note: The caret character means exponentiation in this context. If you wish to silence this warning, use the "**" operator instead or add ".OPTIONS NO_CARET_WARNING" to your netlist.
EXOR P 0 VALUE={IF(V(YTD) > 0.5 ^ V(IN) > .5, 1, 0)}
                                ^
D:\home\mikko\Git\Caravan-Monitor\LTSpice\TPS54202_PSPICE_TRANS\TPS54302_PSPICE_TRANS\TPS54302_TRANS.LIB(664): Note: The caret character means exponentiation in this context. If you wish to silence this warning, use the "**" operator instead or add ".OPTIONS NO_CARET_WARNING" to your netlist.
EXOR P 0 VALUE={IF(V(YTD) > 0.5 ^ V(IN) > .5, 1, 0)}
                                ^
D:\home\mikko\Git\Caravan-Monitor\LTSpice\TPS54202_PSPICE_TRANS\TPS54302_PSPICE_TRANS\TPS54302_TRANS.LIB(664): Note: The caret character means exponentiation in this context. If you wish to silence this warning, use the "**" operator instead or add ".OPTIONS NO_CARET_WARNING" to your netlist.
EXOR P 0 VALUE={IF(V(YTD) > 0.5 ^ V(IN) > .5, 1, 0)}
                                ^
solver = Normal
Maximum thread count: 12
tnom = 27
temp = 27
method = modified trap
WARNING: Node u1:u6_n17027150 is floating.

d_d: Emission coefficient, N=1e-05, too small, this might lead to numerical problems.
d_dtmin: Emission coefficient, N=0.01, too small, this might lead to numerical problems.
Direct Newton iteration for .op point succeeded.
Changing Tseed to 1e-08
Changing Tseed to 1e-10
Changing Tseed to 1e-07
Changing Tseed to 1e-11
Changing Tseed to 1e-06
Changing Tseed to 1e-12
Changing Tseed to 1e-05
Changing Tseed to 1e-13
Changing Tseed to 0.0001
Changing Tseed to 1e-14
Changing Tseed to 0.001
Changing Tseed to 1e-15

Simulation stopped by user.
Total elapsed time: 4.889 seconds.

Files loaded:
D:\home\mikko\Git\Caravan-Monitor\LTSpice\Caravan-monitor.net
D:\home\mikko\Git\Caravan-Monitor\LTSpice\TPS54202_PSPICE_TRANS\TPS54302_PSPICE_TRANS\TPS54302_TRANS.LIB

